/*--------------------------------*- C++ -*----------------------------------*\
| =========                 |                                                 |
| \\      /  F ield         | OpenFOAM: The Open Source CFD Toolbox           |
|  \\    /   O peration     | Version:  v1606+                                |
|   \\  /    A nd           | Web:      www.OpenFOAM.com                      |
|    \\/     M anipulation  |                                                 |
\*---------------------------------------------------------------------------*/
FoamFile
{
    version     2.0;
    format      binary;
    class       volVectorField;
    object      Uair;
}
// * * * * * * * * * * * * * * * * * * * * * * * * * * * * * * * * * * * * * //

dimensions      [0 1 -1 0 0 0 0];

internalField   uniform (0 0 0);

boundaryField
{
    inlet
    {
        type               uniformFixedValue;
        uniformValue       table
                           (
                                (0  (0 0 1.868))
                                (20  (0 0 1.868))
                           );
    }

    outlet
    {
        type               pressureInletOutletVelocity;
        value              $internalField;
        inletValue         $internalField;
    }
    wall
    {
        type               fixedValue;
        value              uniform (0 0 0);
    }

}

// ************************************************************************* //
